<?xml version="1.0" encoding="UTF-8"?>

<!-- generated on 2023-03-01 19:23:36 by Eclipse SUMO netedit Version 1.14.1
<configuration xmlns:xsi="http://www.w3.org/2001/XMLSchema-instance" xsi:noNamespaceSchemaLocation="http://sumo.dlr.de/xsd/netconvertConfiguration.xsd">

    <input>
        <sumo-net-file value="/home/ghz/PycharmProjects/sumo_pymarl2_test/src/envs/SUMO_intersection_random_behaviors/4_way_2_lanes.net.xml"/>
    </input>

    <output>
        <output-file value="/home/ghz/PycharmProjects/sumo_pymarl2_test/src/envs/SUMO_intersection_random_behaviors/4_way_2_lanes.net.xml"/>
    </output>

    <processing>
        <geometry.min-radius.fix.railways value="false"/>
        <geometry.max-grade.fix value="false"/>
        <offset.disable-normalization value="true"/>
        <lefthand value="false"/>
    </processing>

    <junctions>
        <no-turnarounds value="true"/>
        <junctions.corner-detail value="5"/>
        <junctions.limit-turn-speed value="5.5"/>
        <rectangular-lane-cut value="false"/>
    </junctions>

    <pedestrian>
        <walkingareas value="false"/>
    </pedestrian>

</configuration>
-->

<net version="1.9" junctionCornerDetail="5" limitTurnSpeed="5.50" xmlns:xsi="http://www.w3.org/2001/XMLSchema-instance" xsi:noNamespaceSchemaLocation="http://sumo.dlr.de/xsd/net_file.xsd">

    <location netOffset="0.00,0.00" convBoundary="-100.00,-100.00,100.00,100.00" origBoundary="-10000000000.00,-10000000000.00,10000000000.00,10000000000.00" projParameter="!"/>

    <edge id=":J1_0" function="internal">
        <lane id=":J1_0_0" index="0" speed="6.51" length="9.03" shape="-4.80,10.40 -5.15,7.95 -6.20,6.20 -7.95,5.15 -10.40,4.80"/>
    </edge>
    <edge id=":J1_1" function="internal">
        <lane id=":J1_1_0" index="0" speed="13.89" length="20.80" shape="-4.80,10.40 -4.80,-10.40"/>
        <lane id=":J1_1_1" index="1" speed="13.89" length="20.80" shape="-1.60,10.40 -1.60,-10.40"/>
    </edge>
    <edge id=":J1_3" function="internal">
        <lane id=":J1_3_0" index="0" speed="9.26" length="5.01" shape="-1.60,10.40 -0.89,5.44"/>
    </edge>
    <edge id=":J1_16" function="internal">
        <lane id=":J1_16_0" index="0" speed="9.26" length="14.34" shape="-0.89,5.44 -0.85,5.15 1.40,1.40 5.15,-0.85 10.40,-1.60"/>
    </edge>
    <edge id=":J1_4" function="internal">
        <lane id=":J1_4_0" index="0" speed="6.51" length="9.03" shape="10.40,4.80 7.95,5.15 6.20,6.20 5.15,7.95 4.80,10.40"/>
    </edge>
    <edge id=":J1_5" function="internal">
        <lane id=":J1_5_0" index="0" speed="13.89" length="20.80" shape="10.40,4.80 -10.40,4.80"/>
        <lane id=":J1_5_1" index="1" speed="13.89" length="20.80" shape="10.40,1.60 -10.40,1.60"/>
    </edge>
    <edge id=":J1_7" function="internal">
        <lane id=":J1_7_0" index="0" speed="9.26" length="19.35" shape="10.40,1.60 5.15,0.85 1.40,-1.40 -0.85,-5.15 -1.60,-10.40"/>
    </edge>
    <edge id=":J1_8" function="internal">
        <lane id=":J1_8_0" index="0" speed="6.51" length="9.03" shape="4.80,-10.40 5.15,-7.95 6.20,-6.20 7.95,-5.15 10.40,-4.80"/>
    </edge>
    <edge id=":J1_9" function="internal">
        <lane id=":J1_9_0" index="0" speed="13.89" length="20.80" shape="4.80,-10.40 4.80,10.40"/>
        <lane id=":J1_9_1" index="1" speed="13.89" length="20.80" shape="1.60,-10.40 1.60,10.40"/>
    </edge>
    <edge id=":J1_11" function="internal">
        <lane id=":J1_11_0" index="0" speed="9.26" length="5.01" shape="1.60,-10.40 0.89,-5.44"/>
    </edge>
    <edge id=":J1_17" function="internal">
        <lane id=":J1_17_0" index="0" speed="9.26" length="14.34" shape="0.89,-5.44 0.85,-5.15 -1.40,-1.40 -5.15,0.85 -10.40,1.60"/>
    </edge>
    <edge id=":J1_12" function="internal">
        <lane id=":J1_12_0" index="0" speed="6.51" length="9.03" shape="-10.40,-4.80 -7.95,-5.15 -6.20,-6.20 -5.15,-7.95 -4.80,-10.40"/>
    </edge>
    <edge id=":J1_13" function="internal">
        <lane id=":J1_13_0" index="0" speed="13.89" length="20.80" shape="-10.40,-4.80 10.40,-4.80"/>
        <lane id=":J1_13_1" index="1" speed="13.89" length="20.80" shape="-10.40,-1.60 10.40,-1.60"/>
    </edge>
    <edge id=":J1_15" function="internal">
        <lane id=":J1_15_0" index="0" speed="9.26" length="19.35" shape="-10.40,-1.60 -5.15,-0.85 -1.40,1.40 0.85,5.15 1.60,10.40"/>
    </edge>

    <edge id="L0" from="J0" to="J1" priority="-1">
        <lane id="L0_0" index="0" speed="13.89" length="89.60" shape="-4.80,100.00 -4.80,10.40"/>
        <lane id="L0_1" index="1" speed="13.89" length="89.60" shape="-1.60,100.00 -1.60,10.40"/>
    </edge>
    <edge id="L1" from="J1" to="J0" priority="-1">
        <lane id="L1_0" index="0" speed="13.89" length="89.60" shape="4.80,10.40 4.80,100.00"/>
        <lane id="L1_1" index="1" speed="13.89" length="89.60" shape="1.60,10.40 1.60,100.00"/>
    </edge>
    <edge id="L2" from="J3" to="J1" priority="-1">
        <lane id="L2_0" index="0" speed="13.89" length="89.60" shape="100.00,4.80 10.40,4.80"/>
        <lane id="L2_1" index="1" speed="13.89" length="89.60" shape="100.00,1.60 10.40,1.60"/>
    </edge>
    <edge id="L3" from="J1" to="J3" priority="-1">
        <lane id="L3_0" index="0" speed="13.89" length="89.60" shape="10.40,-4.80 100.00,-4.80"/>
        <lane id="L3_1" index="1" speed="13.89" length="89.60" shape="10.40,-1.60 100.00,-1.60"/>
    </edge>
    <edge id="L4" from="J4" to="J1" priority="-1">
        <lane id="L4_0" index="0" speed="13.89" length="89.60" shape="4.80,-100.00 4.80,-10.40"/>
        <lane id="L4_1" index="1" speed="13.89" length="89.60" shape="1.60,-100.00 1.60,-10.40"/>
    </edge>
    <edge id="L5" from="J1" to="J4" priority="-1">
        <lane id="L5_0" index="0" speed="13.89" length="89.60" shape="-4.80,-10.40 -4.80,-100.00"/>
        <lane id="L5_1" index="1" speed="13.89" length="89.60" shape="-1.60,-10.40 -1.60,-100.00"/>
    </edge>
    <edge id="L6" from="J2" to="J1" priority="-1">
        <lane id="L6_0" index="0" speed="13.89" length="89.60" shape="-100.00,-4.80 -10.40,-4.80"/>
        <lane id="L6_1" index="1" speed="13.89" length="89.60" shape="-100.00,-1.60 -10.40,-1.60"/>
    </edge>
    <edge id="L7" from="J1" to="J2" priority="-1">
        <lane id="L7_0" index="0" speed="13.89" length="89.60" shape="-10.40,4.80 -100.00,4.80"/>
        <lane id="L7_1" index="1" speed="13.89" length="89.60" shape="-10.40,1.60 -100.00,1.60"/>
    </edge>

    <junction id="J0" type="dead_end" x="0.00" y="100.00" incLanes="L1_0 L1_1" intLanes="" shape="0.00,100.00 6.40,100.00 0.00,100.00"/>
    <junction id="J1" type="priority" x="0.00" y="0.00" incLanes="L0_0 L0_1 L2_0 L2_1 L4_0 L4_1 L6_0 L6_1" intLanes=":J1_0_0 :J1_1_0 :J1_1_1 :J1_16_0 :J1_4_0 :J1_5_0 :J1_5_1 :J1_7_0 :J1_8_0 :J1_9_0 :J1_9_1 :J1_17_0 :J1_12_0 :J1_13_0 :J1_13_1 :J1_15_0" shape="-6.40,10.40 6.40,10.40 6.84,8.18 7.40,7.40 8.18,6.84 9.18,6.51 10.40,6.40 10.40,-6.40 8.18,-6.84 7.40,-7.40 6.84,-8.18 6.51,-9.18 6.40,-10.40 -6.40,-10.40 -6.84,-8.18 -7.40,-7.40 -8.18,-6.84 -9.18,-6.51 -10.40,-6.40 -10.40,6.40 -8.18,6.84 -7.40,7.40 -6.84,8.18 -6.51,9.18">
        <request index="0"  response="0000000000000000" foes="0000000001100000" cont="0"/>
        <request index="1"  response="0000000000000000" foes="1111100011100000" cont="0"/>
        <request index="2"  response="0000000000000000" foes="1111100011100000" cont="0"/>
        <request index="3"  response="0000011000000000" foes="1110011011100000" cont="1"/>
        <request index="4"  response="0000011000000000" foes="0000011000000000" cont="0"/>
        <request index="5"  response="0000111000001111" foes="1000111000001111" cont="0"/>
        <request index="6"  response="0000111000001111" foes="1000111000001111" cont="0"/>
        <request index="7"  response="0110111000001110" foes="0110111000001110" cont="0"/>
        <request index="8"  response="0000000000000000" foes="0110000000000000" cont="0"/>
        <request index="9"  response="0000000000000000" foes="1110000011111000" cont="0"/>
        <request index="10" response="0000000000000000" foes="1110000011111000" cont="0"/>
        <request index="11" response="0000000000000110" foes="1110000011100110" cont="1"/>
        <request index="12" response="0000000000000110" foes="0000000000000110" cont="0"/>
        <request index="13" response="0000111100001110" foes="0000111110001110" cont="0"/>
        <request index="14" response="0000111100001110" foes="0000111110001110" cont="0"/>
        <request index="15" response="0000111001101110" foes="0000111001101110" cont="0"/>
    </junction>
    <junction id="J2" type="dead_end" x="-100.00" y="0.00" incLanes="L7_0 L7_1" intLanes="" shape="-100.00,0.00 -100.00,6.40 -100.00,0.00"/>
    <junction id="J3" type="dead_end" x="100.00" y="0.00" incLanes="L3_0 L3_1" intLanes="" shape="100.00,0.00 100.00,-6.40 100.00,0.00"/>
    <junction id="J4" type="dead_end" x="0.00" y="-100.00" incLanes="L5_0 L5_1" intLanes="" shape="0.00,-100.00 -6.40,-100.00 0.00,-100.00"/>

    <junction id=":J1_16_0" type="internal" x="-0.89" y="5.44" incLanes=":J1_3_0 L4_0 L4_1" intLanes=":J1_5_0 :J1_5_1 :J1_7_0 :J1_8_0 :J1_9_0 :J1_9_1 :J1_13_0 :J1_13_1 :J1_15_0"/>
    <junction id=":J1_17_0" type="internal" x="0.89" y="-5.44" incLanes=":J1_11_0 L0_0 L0_1" intLanes=":J1_0_0 :J1_1_0 :J1_1_1 :J1_5_0 :J1_5_1 :J1_7_0 :J1_13_0 :J1_13_1 :J1_15_0"/>

    <connection from="L0" to="L7" fromLane="0" toLane="0" via=":J1_0_0" dir="r" state="M"/>
    <connection from="L0" to="L5" fromLane="0" toLane="0" keepClear="0" via=":J1_1_0" dir="s" state="M"/>
    <connection from="L0" to="L5" fromLane="1" toLane="1" via=":J1_1_1" dir="s" state="M"/>
    <connection from="L0" to="L3" fromLane="1" toLane="1" keepClear="0" via=":J1_3_0" dir="l" state="m"/>
    <connection from="L2" to="L1" fromLane="0" toLane="0" via=":J1_4_0" dir="r" state="m"/>
    <connection from="L2" to="L7" fromLane="0" toLane="0" keepClear="0" via=":J1_5_0" dir="s" state="m"/>
    <connection from="L2" to="L7" fromLane="1" toLane="1" via=":J1_5_1" dir="s" state="m"/>
    <connection from="L2" to="L5" fromLane="1" toLane="1" keepClear="0" via=":J1_7_0" dir="l" state="m"/>
    <connection from="L4" to="L3" fromLane="0" toLane="0" via=":J1_8_0" dir="r" state="M"/>
    <connection from="L4" to="L1" fromLane="0" toLane="0" keepClear="0" via=":J1_9_0" dir="s" state="M"/>
    <connection from="L4" to="L1" fromLane="1" toLane="1" via=":J1_9_1" dir="s" state="M"/>
    <connection from="L4" to="L7" fromLane="1" toLane="1" keepClear="0" via=":J1_11_0" dir="l" state="m"/>
    <connection from="L6" to="L5" fromLane="0" toLane="0" via=":J1_12_0" dir="r" state="m"/>
    <connection from="L6" to="L3" fromLane="0" toLane="0" keepClear="0" via=":J1_13_0" dir="s" state="m"/>
    <connection from="L6" to="L3" fromLane="1" toLane="1" via=":J1_13_1" dir="s" state="m"/>
    <connection from="L6" to="L1" fromLane="1" toLane="1" keepClear="0" via=":J1_15_0" dir="l" state="m"/>

    <connection from=":J1_0" to="L7" fromLane="0" toLane="0" dir="r" state="M"/>
    <connection from=":J1_1" to="L5" fromLane="0" toLane="0" dir="s" state="M"/>
    <connection from=":J1_1" to="L5" fromLane="1" toLane="1" dir="s" state="M"/>
    <connection from=":J1_3" to="L3" fromLane="0" toLane="1" via=":J1_16_0" dir="l" state="m"/>
    <connection from=":J1_16" to="L3" fromLane="0" toLane="1" dir="l" state="M"/>
    <connection from=":J1_4" to="L1" fromLane="0" toLane="0" dir="r" state="M"/>
    <connection from=":J1_5" to="L7" fromLane="0" toLane="0" dir="s" state="M"/>
    <connection from=":J1_5" to="L7" fromLane="1" toLane="1" dir="s" state="M"/>
    <connection from=":J1_7" to="L5" fromLane="0" toLane="1" dir="l" state="M"/>
    <connection from=":J1_8" to="L3" fromLane="0" toLane="0" dir="r" state="M"/>
    <connection from=":J1_9" to="L1" fromLane="0" toLane="0" dir="s" state="M"/>
    <connection from=":J1_9" to="L1" fromLane="1" toLane="1" dir="s" state="M"/>
    <connection from=":J1_11" to="L7" fromLane="0" toLane="1" via=":J1_17_0" dir="l" state="m"/>
    <connection from=":J1_17" to="L7" fromLane="0" toLane="1" dir="l" state="M"/>
    <connection from=":J1_12" to="L5" fromLane="0" toLane="0" dir="r" state="M"/>
    <connection from=":J1_13" to="L3" fromLane="0" toLane="0" dir="s" state="M"/>
    <connection from=":J1_13" to="L3" fromLane="1" toLane="1" dir="s" state="M"/>
    <connection from=":J1_15" to="L1" fromLane="0" toLane="1" dir="l" state="M"/>

</net>
